examples/data/enwl/lv-network-models/network_25/Feeder_2/Loads.dss
New Load.LOAD1 Phases=1 Bus1=84.3 kV=0.23 kW=1 PF=0.95
New Load.LOAD2 Phases=1 Bus1=100.3 kV=0.23 kW=1 PF=0.95
New Load.LOAD3 Phases=1 Bus1=184.3 kV=0.23 kW=1 PF=0.95
New Load.LOAD4 Phases=1 Bus1=219.1 kV=0.23 kW=1 PF=0.95
New Load.LOAD5 Phases=1 Bus1=308.2 kV=0.23 kW=1 PF=0.95
New Load.LOAD6 Phases=1 Bus1=325.2 kV=0.23 kW=1 PF=0.95
New Load.LOAD7 Phases=1 Bus1=470.3 kV=0.23 kW=1 PF=0.95
New Load.LOAD8 Phases=1 Bus1=473.1 kV=0.23 kW=1 PF=0.95
New Load.LOAD9 Phases=1 Bus1=478.2 kV=0.23 kW=1 PF=0.95
New Load.LOAD10 Phases=1 Bus1=487.2 kV=0.23 kW=1 PF=0.95
New Load.LOAD11 Phases=1 Bus1=534.3 kV=0.23 kW=1 PF=0.95
New Load.LOAD12 Phases=1 Bus1=564.1 kV=0.23 kW=1 PF=0.95
New Load.LOAD13 Phases=1 Bus1=678.2 kV=0.23 kW=1 PF=0.95
New Load.LOAD14 Phases=1 Bus1=693.2 kV=0.23 kW=1 PF=0.95
New Load.LOAD15 Phases=1 Bus1=703.2 kV=0.23 kW=1 PF=0.95
New Load.LOAD16 Phases=1 Bus1=743.1 kV=0.23 kW=1 PF=0.95
New Load.LOAD17 Phases=1 Bus1=752.2 kV=0.23 kW=1 PF=0.95
New Load.LOAD18 Phases=1 Bus1=758.2 kV=0.23 kW=1 PF=0.95